16
Lattice="5.9500055420727245 -0.17714386020240108 -0.0457048363776418 -0.1771438602024469 6.2552049657818 0.23861390971252602 -0.0457048363774076 0.2386139097124742 6.2829338285036425" Properties=species:S:1:pos:R:3 n_minim_iter=0 energy=-117.40724835101878 free_energy=-117.40724835101878 pbc="T T T"
Hf      -0.21364271      -0.05920619      -0.46801189
Ti       1.49203191       1.41179312       1.55843997
Ni       0.00754164       0.27923019       3.20778709
Ni       1.61679938       1.85314378       4.91048088
Ti      -0.01006788       3.07481244       0.06280812
Ti       1.15256841       4.92014927       2.02023930
Ti      -0.13167945       2.79134354       3.35208845
Ni       1.17289158       4.67247007       4.61051326
Ni       2.75126935      -0.12315220      -0.11828414
Ti       4.28569169       1.20275909       1.52502370
Ti       3.17387766      -0.02611029       3.63013208
Ni       4.06974216       1.88480079       5.03702182
Hf       2.99574851       3.57466892       0.05257583
Ni       4.43354996       4.82188089       1.84555723
Ti       2.88982192       3.20853536       3.22306809
Ni       4.67679693       4.41293132       4.40561762
16
Lattice="5.86779308486017 0.10649410124293389 -0.07241973732501573 0.10649410124293676 6.250735859918716 -0.06594554973212095 -0.07241973732500684 -0.06594554973210434 6.325817512852697" Properties=species:S:1:pos:R:3 n_minim_iter=0 energy=-117.40724835101878 free_energy=-117.40724835101878 pbc="T T T"
Ti       0.07508096      -0.11196801      -0.30915321
Ni       1.54173620       1.35004309       1.73614837
Ni      -0.09172587      -0.18892539       3.47413242
Ti       1.49315455       1.65908771       4.17061974
Hf       0.24605735       3.07923273      -0.01187543
Ni       1.28910856       4.98998298       1.61263384
Ti      -0.21083036       3.58617779       3.14782952
Ni       1.69537275       4.47432636       4.58079139
Ti       2.80203314       0.04528316      -0.04159279
Hf       4.55980029       1.43930916       1.80706743
Ti       3.03765137      -0.42833215       3.10439614
Ti       4.19843307       1.71675987       4.61603119
Ti       2.91228200       3.30191791       0.25344934
Ni       4.61170597       4.94672117       1.20134231
Ni       3.01922854       3.33221833       2.85017117
Ni       4.23211619       4.55587174       4.93272192
16
Lattice="5.817807050750981 -0.027911920401685067 -0.11934273604245797 -0.027911920403217425 6.638548444558513 -0.210402082498935 -0.1193427360418003 -0.21040208250346518 5.991890827618438" Properties=species:S:1:pos:R:3 n_minim_iter=0 energy=-117.40724835101878 free_energy=-117.40724835101878 pbc="T T T"
Hf       0.06429694       0.17267050       0.39222184
Ni       1.73040828       2.09504056       1.07479429
Ni       0.06359346      -0.06879466       3.11537261
Ni       1.43150627       1.39265873       4.65188285
Hf      -0.03140415       3.34201449      -0.35213679
Ti       1.49652854       4.67369544       1.67611765
Ti      -0.02535674       2.48968968       2.78756290
Ni       1.22144340       4.83291095       4.18363493
Ti       2.84895839      -0.16357187      -0.09324261
Ni       4.07478942       1.96943928       0.94911642
Ti       2.55885360       0.24997899       2.73064049
Ni       4.30082610       1.08365497       4.46885502
Ni       2.86836229       3.75512364      -0.33212138
Ti       4.30003406       4.70891166       1.44182209
Ti       2.93135784       2.84655287       3.25887033
Ti       4.18911668       5.02143141       4.01948541
